* NGSPICE file created from crossbar.ext - technology: sky130A

* Black-box entry subcircuit for sky130_fd_sc_hd__decap_8 abstract view
.subckt sky130_fd_sc_hd__decap_8 VGND VNB VPB VPWR
.ends

* Black-box entry subcircuit for sky130_fd_sc_hd__fill_1 abstract view
.subckt sky130_fd_sc_hd__fill_1 VGND VNB VPB VPWR
.ends

* Black-box entry subcircuit for sky130_fd_sc_hd__fill_2 abstract view
.subckt sky130_fd_sc_hd__fill_2 VGND VNB VPB VPWR
.ends

* Black-box entry subcircuit for sky130_fd_sc_hd__or2_1 abstract view
.subckt sky130_fd_sc_hd__or2_1 A B VGND VNB VPB VPWR X
.ends

* Black-box entry subcircuit for sky130_fd_sc_hd__decap_4 abstract view
.subckt sky130_fd_sc_hd__decap_4 VGND VNB VPB VPWR
.ends

* Black-box entry subcircuit for sky130_ef_sc_hd__decap_12 abstract view
.subckt sky130_ef_sc_hd__decap_12 VPWR VGND VPB VNB
.ends

* Black-box entry subcircuit for sky130_fd_sc_hd__tapvpwrvgnd_1 abstract view
.subckt sky130_fd_sc_hd__tapvpwrvgnd_1 VGND VPWR
.ends

* Black-box entry subcircuit for sky130_fd_sc_hd__o211a_1 abstract view
.subckt sky130_fd_sc_hd__o211a_1 A1 A2 B1 C1 VGND VNB VPB VPWR X
.ends

* Black-box entry subcircuit for sky130_fd_sc_hd__decap_6 abstract view
.subckt sky130_fd_sc_hd__decap_6 VGND VNB VPB VPWR
.ends

* Black-box entry subcircuit for sky130_fd_sc_hd__nor2_1 abstract view
.subckt sky130_fd_sc_hd__nor2_1 A B VGND VNB VPB VPWR Y
.ends

* Black-box entry subcircuit for sky130_fd_sc_hd__o21bai_1 abstract view
.subckt sky130_fd_sc_hd__o21bai_1 A1 A2 B1_N VGND VNB VPB VPWR Y
.ends

* Black-box entry subcircuit for sky130_fd_sc_hd__and2b_1 abstract view
.subckt sky130_fd_sc_hd__and2b_1 A_N B VGND VNB VPB VPWR X
.ends

* Black-box entry subcircuit for sky130_fd_sc_hd__decap_3 abstract view
.subckt sky130_fd_sc_hd__decap_3 VGND VNB VPB VPWR
.ends

* Black-box entry subcircuit for sky130_fd_sc_hd__nand2_1 abstract view
.subckt sky130_fd_sc_hd__nand2_1 A B VGND VNB VPB VPWR Y
.ends

* Black-box entry subcircuit for sky130_fd_sc_hd__and3_1 abstract view
.subckt sky130_fd_sc_hd__and3_1 A B C VGND VNB VPB VPWR X
.ends

* Black-box entry subcircuit for sky130_fd_sc_hd__buf_2 abstract view
.subckt sky130_fd_sc_hd__buf_2 A VGND VNB VPB VPWR X
.ends

* Black-box entry subcircuit for sky130_fd_sc_hd__a21o_1 abstract view
.subckt sky130_fd_sc_hd__a21o_1 A1 A2 B1 VGND VNB VPB VPWR X
.ends

* Black-box entry subcircuit for sky130_fd_sc_hd__and2_1 abstract view
.subckt sky130_fd_sc_hd__and2_1 A B VGND VNB VPB VPWR X
.ends

* Black-box entry subcircuit for sky130_fd_sc_hd__xor2_2 abstract view
.subckt sky130_fd_sc_hd__xor2_2 A B VGND VNB VPB VPWR X
.ends

* Black-box entry subcircuit for sky130_fd_sc_hd__xor2_1 abstract view
.subckt sky130_fd_sc_hd__xor2_1 A B VGND VNB VPB VPWR X
.ends

* Black-box entry subcircuit for sky130_fd_sc_hd__o21ai_1 abstract view
.subckt sky130_fd_sc_hd__o21ai_1 A1 A2 B1 VGND VNB VPB VPWR Y
.ends

* Black-box entry subcircuit for sky130_fd_sc_hd__xnor2_1 abstract view
.subckt sky130_fd_sc_hd__xnor2_1 A B VGND VNB VPB VPWR Y
.ends

* Black-box entry subcircuit for sky130_fd_sc_hd__a21oi_1 abstract view
.subckt sky130_fd_sc_hd__a21oi_1 A1 A2 B1 VGND VNB VPB VPWR Y
.ends

* Black-box entry subcircuit for sky130_fd_sc_hd__inv_2 abstract view
.subckt sky130_fd_sc_hd__inv_2 A VGND VNB VPB VPWR Y
.ends

* Black-box entry subcircuit for sky130_fd_sc_hd__a21bo_1 abstract view
.subckt sky130_fd_sc_hd__a21bo_1 A1 A2 B1_N VGND VNB VPB VPWR X
.ends

* Black-box entry subcircuit for sky130_fd_sc_hd__nand2b_1 abstract view
.subckt sky130_fd_sc_hd__nand2b_1 A_N B VGND VNB VPB VPWR Y
.ends

* Black-box entry subcircuit for sky130_fd_sc_hd__o31a_1 abstract view
.subckt sky130_fd_sc_hd__o31a_1 A1 A2 A3 B1 VGND VNB VPB VPWR X
.ends

* Black-box entry subcircuit for sky130_fd_sc_hd__or3_4 abstract view
.subckt sky130_fd_sc_hd__or3_4 A B C VGND VNB VPB VPWR X
.ends

* Black-box entry subcircuit for sky130_fd_sc_hd__o2bb2a_1 abstract view
.subckt sky130_fd_sc_hd__o2bb2a_1 A1_N A2_N B1 B2 VGND VNB VPB VPWR X
.ends

* Black-box entry subcircuit for sky130_fd_sc_hd__o22a_1 abstract view
.subckt sky130_fd_sc_hd__o22a_1 A1 A2 B1 B2 VGND VNB VPB VPWR X
.ends

* Black-box entry subcircuit for sky130_fd_sc_hd__nor4_2 abstract view
.subckt sky130_fd_sc_hd__nor4_2 A B C D VGND VNB VPB VPWR Y
.ends

* Black-box entry subcircuit for sky130_fd_sc_hd__and4_1 abstract view
.subckt sky130_fd_sc_hd__and4_1 A B C D VGND VNB VPB VPWR X
.ends

* Black-box entry subcircuit for sky130_fd_sc_hd__o21a_1 abstract view
.subckt sky130_fd_sc_hd__o21a_1 A1 A2 B1 VGND VNB VPB VPWR X
.ends

* Black-box entry subcircuit for sky130_fd_sc_hd__a2bb2o_1 abstract view
.subckt sky130_fd_sc_hd__a2bb2o_1 A1_N A2_N B1 B2 VGND VNB VPB VPWR X
.ends

* Black-box entry subcircuit for sky130_fd_sc_hd__nand3_1 abstract view
.subckt sky130_fd_sc_hd__nand3_1 A B C VGND VNB VPB VPWR Y
.ends

* Black-box entry subcircuit for sky130_fd_sc_hd__xnor2_4 abstract view
.subckt sky130_fd_sc_hd__xnor2_4 A B VGND VNB VPB VPWR Y
.ends

* Black-box entry subcircuit for sky130_fd_sc_hd__xnor2_2 abstract view
.subckt sky130_fd_sc_hd__xnor2_2 A B VGND VNB VPB VPWR Y
.ends

* Black-box entry subcircuit for sky130_fd_sc_hd__or3_1 abstract view
.subckt sky130_fd_sc_hd__or3_1 A B C VGND VNB VPB VPWR X
.ends

* Black-box entry subcircuit for sky130_fd_sc_hd__o21ai_2 abstract view
.subckt sky130_fd_sc_hd__o21ai_2 A1 A2 B1 VGND VNB VPB VPWR Y
.ends

* Black-box entry subcircuit for sky130_fd_sc_hd__nor3_1 abstract view
.subckt sky130_fd_sc_hd__nor3_1 A B C VGND VNB VPB VPWR Y
.ends

* Black-box entry subcircuit for sky130_fd_sc_hd__or4_1 abstract view
.subckt sky130_fd_sc_hd__or4_1 A B C D VGND VNB VPB VPWR X
.ends

* Black-box entry subcircuit for sky130_fd_sc_hd__a21boi_2 abstract view
.subckt sky130_fd_sc_hd__a21boi_2 A1 A2 B1_N VGND VNB VPB VPWR Y
.ends

* Black-box entry subcircuit for sky130_fd_sc_hd__nand3b_1 abstract view
.subckt sky130_fd_sc_hd__nand3b_1 A_N B C VGND VNB VPB VPWR Y
.ends

* Black-box entry subcircuit for sky130_fd_sc_hd__clkbuf_4 abstract view
.subckt sky130_fd_sc_hd__clkbuf_4 A VGND VNB VPB VPWR X
.ends

* Black-box entry subcircuit for sky130_fd_sc_hd__a21oi_2 abstract view
.subckt sky130_fd_sc_hd__a21oi_2 A1 A2 B1 VGND VNB VPB VPWR Y
.ends

* Black-box entry subcircuit for sky130_fd_sc_hd__clkbuf_2 abstract view
.subckt sky130_fd_sc_hd__clkbuf_2 A VGND VNB VPB VPWR X
.ends

* Black-box entry subcircuit for sky130_fd_sc_hd__nand2b_4 abstract view
.subckt sky130_fd_sc_hd__nand2b_4 A_N B VGND VNB VPB VPWR Y
.ends

* Black-box entry subcircuit for sky130_fd_sc_hd__buf_6 abstract view
.subckt sky130_fd_sc_hd__buf_6 A VGND VNB VPB VPWR X
.ends

* Black-box entry subcircuit for sky130_fd_sc_hd__buf_8 abstract view
.subckt sky130_fd_sc_hd__buf_8 A VGND VNB VPB VPWR X
.ends

* Black-box entry subcircuit for sky130_fd_sc_hd__o21ba_1 abstract view
.subckt sky130_fd_sc_hd__o21ba_1 A1 A2 B1_N VGND VNB VPB VPWR X
.ends

* Black-box entry subcircuit for sky130_fd_sc_hd__nor3b_2 abstract view
.subckt sky130_fd_sc_hd__nor3b_2 A B C_N VGND VNB VPB VPWR Y
.ends

* Black-box entry subcircuit for sky130_fd_sc_hd__a211o_1 abstract view
.subckt sky130_fd_sc_hd__a211o_1 A1 A2 B1 C1 VGND VNB VPB VPWR X
.ends

* Black-box entry subcircuit for sky130_fd_sc_hd__o21bai_2 abstract view
.subckt sky130_fd_sc_hd__o21bai_2 A1 A2 B1_N VGND VNB VPB VPWR Y
.ends

* Black-box entry subcircuit for sky130_fd_sc_hd__dlymetal6s2s_1 abstract view
.subckt sky130_fd_sc_hd__dlymetal6s2s_1 A VGND VNB VPB VPWR X
.ends

* Black-box entry subcircuit for sky130_fd_sc_hd__nor2_2 abstract view
.subckt sky130_fd_sc_hd__nor2_2 A B VGND VNB VPB VPWR Y
.ends

* Black-box entry subcircuit for sky130_fd_sc_hd__buf_1 abstract view
.subckt sky130_fd_sc_hd__buf_1 A VGND VNB VPB VPWR X
.ends

* Black-box entry subcircuit for sky130_fd_sc_hd__or2_4 abstract view
.subckt sky130_fd_sc_hd__or2_4 A B VGND VNB VPB VPWR X
.ends

* Black-box entry subcircuit for sky130_fd_sc_hd__a31o_1 abstract view
.subckt sky130_fd_sc_hd__a31o_1 A1 A2 A3 B1 VGND VNB VPB VPWR X
.ends

* Black-box entry subcircuit for sky130_fd_sc_hd__o41a_1 abstract view
.subckt sky130_fd_sc_hd__o41a_1 A1 A2 A3 A4 B1 VGND VNB VPB VPWR X
.ends

* Black-box entry subcircuit for sky130_fd_sc_hd__a21boi_1 abstract view
.subckt sky130_fd_sc_hd__a21boi_1 A1 A2 B1_N VGND VNB VPB VPWR Y
.ends

* Black-box entry subcircuit for sky130_fd_sc_hd__clkbuf_1 abstract view
.subckt sky130_fd_sc_hd__clkbuf_1 A VGND VNB VPB VPWR X
.ends

* Black-box entry subcircuit for sky130_fd_sc_hd__and3b_1 abstract view
.subckt sky130_fd_sc_hd__and3b_1 A_N B C VGND VNB VPB VPWR X
.ends

* Black-box entry subcircuit for sky130_fd_sc_hd__o31ai_1 abstract view
.subckt sky130_fd_sc_hd__o31ai_1 A1 A2 A3 B1 VGND VNB VPB VPWR Y
.ends

* Black-box entry subcircuit for sky130_fd_sc_hd__nor3_2 abstract view
.subckt sky130_fd_sc_hd__nor3_2 A B C VGND VNB VPB VPWR Y
.ends

* Black-box entry subcircuit for sky130_fd_sc_hd__or4_4 abstract view
.subckt sky130_fd_sc_hd__or4_4 A B C D VGND VNB VPB VPWR X
.ends

* Black-box entry subcircuit for sky130_fd_sc_hd__dlygate4sd1_1 abstract view
.subckt sky130_fd_sc_hd__dlygate4sd1_1 A VGND VNB VPB VPWR X
.ends

* Black-box entry subcircuit for sky130_fd_sc_hd__mux2_1 abstract view
.subckt sky130_fd_sc_hd__mux2_1 A0 A1 S VGND VNB VPB VPWR X
.ends

* Black-box entry subcircuit for sky130_fd_sc_hd__a41o_1 abstract view
.subckt sky130_fd_sc_hd__a41o_1 A1 A2 A3 A4 B1 VGND VNB VPB VPWR X
.ends

* Black-box entry subcircuit for sky130_fd_sc_hd__or3b_4 abstract view
.subckt sky130_fd_sc_hd__or3b_4 A B C_N VGND VNB VPB VPWR X
.ends

* Black-box entry subcircuit for sky130_fd_sc_hd__a22o_1 abstract view
.subckt sky130_fd_sc_hd__a22o_1 A1 A2 B1 B2 VGND VNB VPB VPWR X
.ends

* Black-box entry subcircuit for sky130_fd_sc_hd__or4bb_4 abstract view
.subckt sky130_fd_sc_hd__or4bb_4 A B C_N D_N VGND VNB VPB VPWR X
.ends

.subckt crossbar VGND VPWR i0[0] i0[1] i0[2] i0[3] i0[4] i0[5] i0[6] i0[7] i0[8] i0[9]
+ i1[0] i1[1] i1[2] i1[3] i1[4] i1[5] i1[6] i1[7] i1[8] i1[9] i2[0] i2[1] i2[2] i2[3]
+ i2[4] i2[5] i2[6] i2[7] i2[8] i2[9] i3[0] i3[1] i3[2] i3[3] i3[4] i3[5] i3[6] i3[7]
+ i3[8] i3[9] v0[0] v0[1] v0[2] v0[3] v0[4] v0[5] v0[6] v0[7] v1[0] v1[1] v1[2] v1[3]
+ v1[4] v1[5] v1[6] v1[7] v2[0] v2[1] v2[2] v2[3] v2[4] v2[5] v2[6] v2[7] v3[0] v3[1]
+ v3[2] v3[3] v3[4] v3[5] v3[6] v3[7]
XFILLER_36_19 VGND VGND VPWR VPWR sky130_fd_sc_hd__decap_8
XFILLER_22_166 VGND VGND VPWR VPWR sky130_fd_sc_hd__fill_1
XFILLER_13_111 VGND VGND VPWR VPWR sky130_fd_sc_hd__fill_1
XFILLER_13_133 VGND VGND VPWR VPWR sky130_fd_sc_hd__fill_2
X_501_ net18 net10 VGND VGND VPWR VPWR _474_ sky130_fd_sc_hd__or2_1
XFILLER_26_41 VGND VGND VPWR VPWR sky130_fd_sc_hd__decap_4
XFILLER_26_85 VPWR VGND VPWR VGND sky130_ef_sc_hd__decap_12
XFILLER_9_137 VPWR VGND VPWR VGND sky130_ef_sc_hd__decap_12
XFILLER_8_181 VPWR VGND VPWR VGND sky130_ef_sc_hd__decap_12
XFILLER_6_129 VGND VGND VPWR VPWR sky130_fd_sc_hd__decap_8
XFILLER_6_118 VGND VGND VPWR VPWR sky130_fd_sc_hd__fill_2
XTAP_TAPCELL_ROW_20_164 VGND VPWR sky130_fd_sc_hd__tapvpwrvgnd_1
X_981_ _418_ _434_ _433_ _421_ VGND VGND VPWR VPWR _444_ sky130_fd_sc_hd__o211a_1
XFILLER_33_217 VGND VGND VPWR VPWR sky130_fd_sc_hd__decap_6
XTAP_TAPCELL_ROW_11_131 VGND VPWR sky130_fd_sc_hd__tapvpwrvgnd_1
XTAP_TAPCELL_ROW_34_223 VGND VPWR sky130_fd_sc_hd__tapvpwrvgnd_1
XFILLER_30_209 VPWR VGND VPWR VGND sky130_ef_sc_hd__decap_12
XFILLER_23_86 VPWR VGND VPWR VGND sky130_ef_sc_hd__decap_12
X_964_ _425_ _426_ VGND VGND VPWR VPWR _428_ sky130_fd_sc_hd__nor2_1
XFILLER_2_165 VGND VGND VPWR VPWR sky130_fd_sc_hd__decap_6
XFILLER_2_121 VPWR VGND VPWR VGND sky130_ef_sc_hd__decap_12
X_895_ net27 _350_ _351_ VGND VGND VPWR VPWR _363_ sky130_fd_sc_hd__o21bai_1
XFILLER_0_57 VGND VGND VPWR VPWR sky130_fd_sc_hd__decap_8
XFILLER_9_55 VGND VGND VPWR VPWR sky130_fd_sc_hd__fill_1
X_680_ _163_ _164_ VGND VGND VPWR VPWR _165_ sky130_fd_sc_hd__and2b_1
XFILLER_18_97 VGND VGND VPWR VPWR sky130_fd_sc_hd__decap_3
XFILLER_7_202 VPWR VGND VPWR VGND sky130_ef_sc_hd__decap_12
XFILLER_11_220 VGND VGND VPWR VPWR sky130_fd_sc_hd__decap_4
XFILLER_34_74 VGND VGND VPWR VPWR sky130_fd_sc_hd__decap_6
XFILLER_22_7 VGND VGND VPWR VPWR sky130_fd_sc_hd__fill_1
X_878_ _114_ _347_ VGND VGND VPWR VPWR _348_ sky130_fd_sc_hd__nand2_1
X_947_ _410_ _411_ VGND VGND VPWR VPWR _412_ sky130_fd_sc_hd__nand2_1
XFILLER_37_161 VGND VGND VPWR VPWR sky130_fd_sc_hd__decap_6
XFILLER_20_65 VGND VGND VPWR VPWR sky130_fd_sc_hd__decap_3
X_732_ _192_ _195_ _212_ VGND VGND VPWR VPWR _214_ sky130_fd_sc_hd__and3_1
XFILLER_20_98 VPWR VGND VPWR VGND sky130_ef_sc_hd__decap_12
X_801_ _266_ _276_ VGND VGND VPWR VPWR _277_ sky130_fd_sc_hd__or2_1
X_663_ net12 _148_ VGND VGND VPWR VPWR _149_ sky130_fd_sc_hd__nor2_1
X_594_ net24 net77 VGND VGND VPWR VPWR _086_ sky130_fd_sc_hd__or2_1
XFILLER_13_3 VPWR VGND VPWR VGND sky130_ef_sc_hd__decap_12
XFILLER_19_183 VGND VGND VPWR VPWR sky130_fd_sc_hd__decap_8
XFILLER_26_109 VGND VGND VPWR VPWR sky130_fd_sc_hd__decap_8
XFILLER_34_153 VPWR VGND VPWR VGND sky130_ef_sc_hd__decap_12
XFILLER_34_197 VPWR VGND VPWR VGND sky130_ef_sc_hd__decap_12
XFILLER_25_153 VGND VGND VPWR VPWR sky130_fd_sc_hd__fill_1
XFILLER_15_54 VGND VGND VPWR VPWR sky130_fd_sc_hd__fill_2
XFILLER_15_65 VGND VGND VPWR VPWR sky130_fd_sc_hd__decap_8
Xoutput42 net42 VGND VGND VPWR VPWR i0[9] sky130_fd_sc_hd__buf_2
Xoutput53 net53 VGND VGND VPWR VPWR i2[0] sky130_fd_sc_hd__buf_2
Xoutput64 net64 VGND VGND VPWR VPWR i3[1] sky130_fd_sc_hd__buf_2
X_715_ _176_ _179_ _197_ VGND VGND VPWR VPWR _198_ sky130_fd_sc_hd__a21o_1
X_646_ _116_ _132_ VGND VGND VPWR VPWR _133_ sky130_fd_sc_hd__and2_1
XFILLER_16_153 VGND VGND VPWR VPWR sky130_fd_sc_hd__decap_3
XTAP_TAPCELL_ROW_18_159 VGND VPWR sky130_fd_sc_hd__tapvpwrvgnd_1
X_577_ net23 net15 VGND VGND VPWR VPWR _070_ sky130_fd_sc_hd__nand2_1
XFILLER_22_134 VGND VGND VPWR VPWR sky130_fd_sc_hd__fill_1
X_500_ net79 net2 VGND VGND VPWR VPWR _473_ sky130_fd_sc_hd__xor2_2
XFILLER_13_167 VGND VGND VPWR VPWR sky130_fd_sc_hd__fill_1
XFILLER_26_97 VPWR VGND VPWR VGND sky130_ef_sc_hd__decap_12
XFILLER_9_149 VGND VGND VPWR VPWR sky130_fd_sc_hd__decap_8
XFILLER_13_189 VGND VGND VPWR VPWR sky130_fd_sc_hd__fill_2
XFILLER_3_57 VPWR VGND VPWR VGND sky130_ef_sc_hd__decap_12
XFILLER_36_237 VGND VGND VPWR VPWR sky130_fd_sc_hd__fill_1
X_629_ _115_ _116_ VGND VGND VPWR VPWR _117_ sky130_fd_sc_hd__nand2_1
XTAP_TAPCELL_ROW_14_140 VGND VPWR sky130_fd_sc_hd__tapvpwrvgnd_1
XFILLER_8_193 VGND VGND VPWR VPWR sky130_fd_sc_hd__decap_3
XTAP_TAPCELL_ROW_6_108 VGND VPWR sky130_fd_sc_hd__tapvpwrvgnd_1
XTAP_TAPCELL_ROW_37_232 VGND VPWR sky130_fd_sc_hd__tapvpwrvgnd_1
XTAP_TAPCELL_ROW_20_165 VGND VPWR sky130_fd_sc_hd__tapvpwrvgnd_1
X_980_ _440_ _442_ VGND VGND VPWR VPWR _443_ sky130_fd_sc_hd__nor2_1
XFILLER_37_74 VPWR VGND VPWR VGND sky130_ef_sc_hd__decap_12
XFILLER_24_229 VGND VGND VPWR VPWR sky130_fd_sc_hd__decap_4
XPHY_EDGE_ROW_12_Right_12 VGND VGND VPWR VPWR sky130_fd_sc_hd__decap_3
XPHY_EDGE_ROW_21_Right_21 VGND VGND VPWR VPWR sky130_fd_sc_hd__decap_3
XFILLER_23_98 VGND VGND VPWR VPWR sky130_fd_sc_hd__fill_1
XPHY_EDGE_ROW_30_Right_30 VGND VGND VPWR VPWR sky130_fd_sc_hd__decap_3
X_963_ _425_ _426_ VGND VGND VPWR VPWR _427_ sky130_fd_sc_hd__and2_1
XFILLER_2_133 VGND VGND VPWR VPWR sky130_fd_sc_hd__decap_6
X_894_ _360_ _361_ VGND VGND VPWR VPWR net35 sky130_fd_sc_hd__xor2_1
XPHY_EDGE_ROW_8_Left_48 VGND VGND VPWR VPWR sky130_fd_sc_hd__decap_3
XFILLER_7_214 VGND VGND VPWR VPWR sky130_fd_sc_hd__decap_8
XFILLER_15_7 VGND VGND VPWR VPWR sky130_fd_sc_hd__fill_1
X_946_ net30 _394_ _392_ VGND VGND VPWR VPWR _411_ sky130_fd_sc_hd__o21ai_1
X_877_ _342_ _345_ VGND VGND VPWR VPWR _347_ sky130_fd_sc_hd__xnor2_1
XFILLER_29_129 VGND VGND VPWR VPWR sky130_fd_sc_hd__fill_1
XFILLER_20_33 VPWR VGND VPWR VGND sky130_ef_sc_hd__decap_12
X_662_ _142_ _146_ VGND VGND VPWR VPWR _148_ sky130_fd_sc_hd__xnor2_1
X_731_ _192_ _195_ _212_ VGND VGND VPWR VPWR _213_ sky130_fd_sc_hd__a21oi_1
X_800_ _273_ _274_ VGND VGND VPWR VPWR _276_ sky130_fd_sc_hd__xnor2_1
X_593_ net24 net77 VGND VGND VPWR VPWR _085_ sky130_fd_sc_hd__nand2_1
X_929_ net30 _394_ VGND VGND VPWR VPWR _395_ sky130_fd_sc_hd__xor2_1
XFILLER_34_110 VPWR VGND VPWR VGND sky130_ef_sc_hd__decap_12
XFILLER_34_165 VPWR VGND VPWR VGND sky130_ef_sc_hd__decap_12
XPHY_EDGE_ROW_6_Right_6 VGND VGND VPWR VPWR sky130_fd_sc_hd__decap_3
XFILLER_15_88 VGND VGND VPWR VPWR sky130_fd_sc_hd__decap_8
XFILLER_31_43 VGND VGND VPWR VPWR sky130_fd_sc_hd__fill_1
Xoutput43 net43 VGND VGND VPWR VPWR i1[0] sky130_fd_sc_hd__buf_2
Xoutput54 net54 VGND VGND VPWR VPWR i2[1] sky130_fd_sc_hd__buf_2
Xoutput65 net65 VGND VGND VPWR VPWR i3[2] sky130_fd_sc_hd__buf_2
X_645_ net27 _131_ VGND VGND VPWR VPWR _132_ sky130_fd_sc_hd__xnor2_1
X_714_ _196_ VGND VGND VPWR VPWR _197_ sky130_fd_sc_hd__inv_2
X_576_ net23 net15 VGND VGND VPWR VPWR _069_ sky130_fd_sc_hd__or2_1
XFILLER_31_113 VGND VGND VPWR VPWR sky130_fd_sc_hd__decap_3
XFILLER_31_146 VPWR VGND VPWR VGND sky130_ef_sc_hd__decap_12
XFILLER_22_102 VGND VGND VPWR VPWR sky130_fd_sc_hd__fill_1
XFILLER_22_146 VPWR VGND VPWR VGND sky130_ef_sc_hd__decap_12
XPHY_EDGE_ROW_37_Left_77 VGND VGND VPWR VPWR sky130_fd_sc_hd__decap_3
XFILLER_13_146 VPWR VGND VPWR VGND sky130_ef_sc_hd__decap_12
XFILLER_3_69 VPWR VGND VPWR VGND sky130_ef_sc_hd__decap_12
X_628_ net2 net18 VGND VGND VPWR VPWR _116_ sky130_fd_sc_hd__or2_1
XTAP_TAPCELL_ROW_14_141 VGND VPWR sky130_fd_sc_hd__tapvpwrvgnd_1
X_559_ net5 _021_ net6 VGND VGND VPWR VPWR _053_ sky130_fd_sc_hd__o21ai_1
XTAP_TAPCELL_ROW_6_109 VGND VPWR sky130_fd_sc_hd__tapvpwrvgnd_1
XTAP_TAPCELL_ROW_37_233 VGND VPWR sky130_fd_sc_hd__tapvpwrvgnd_1
XFILLER_12_56 VPWR VGND VPWR VGND sky130_ef_sc_hd__decap_12
XTAP_TAPCELL_ROW_20_166 VGND VPWR sky130_fd_sc_hd__tapvpwrvgnd_1
XFILLER_37_86 VPWR VGND VPWR VGND sky130_ef_sc_hd__decap_12
XFILLER_18_216 VGND VGND VPWR VPWR sky130_fd_sc_hd__fill_1
XFILLER_5_131 VGND VGND VPWR VPWR sky130_fd_sc_hd__fill_1
XFILLER_23_11 VGND VGND VPWR VPWR sky130_fd_sc_hd__fill_1
XFILLER_23_55 VGND VGND VPWR VPWR sky130_fd_sc_hd__fill_1
XFILLER_3_3 VPWR VGND VPWR VGND sky130_ef_sc_hd__decap_12
XFILLER_0_15 VPWR VGND VPWR VGND sky130_ef_sc_hd__decap_12
X_962_ net31 _407_ _408_ VGND VGND VPWR VPWR _426_ sky130_fd_sc_hd__o21ai_1
X_893_ _346_ _348_ _360_ VGND VGND VPWR VPWR _362_ sky130_fd_sc_hd__a21bo_1
XFILLER_9_57 VPWR VGND VPWR VGND sky130_ef_sc_hd__decap_12
XPHY_EDGE_ROW_24_Left_64 VGND VGND VPWR VPWR sky130_fd_sc_hd__decap_3
XTAP_TAPCELL_ROW_0_80 VGND VPWR sky130_fd_sc_hd__tapvpwrvgnd_1
XFILLER_11_233 VGND VGND VPWR VPWR sky130_fd_sc_hd__fill_1
X_945_ net31 _409_ VGND VGND VPWR VPWR _410_ sky130_fd_sc_hd__xnor2_1
X_876_ _345_ _342_ VGND VGND VPWR VPWR _346_ sky130_fd_sc_hd__nand2b_1
XFILLER_20_45 VPWR VGND VPWR VGND sky130_ef_sc_hd__decap_12
X_661_ _142_ _146_ VGND VGND VPWR VPWR _147_ sky130_fd_sc_hd__and2_1
X_730_ _211_ VGND VGND VPWR VPWR _212_ sky130_fd_sc_hd__inv_2
X_592_ net8 net74 VGND VGND VPWR VPWR _084_ sky130_fd_sc_hd__xor2_1
X_928_ _392_ _393_ VGND VGND VPWR VPWR _394_ sky130_fd_sc_hd__nand2_1
X_859_ _317_ _304_ _315_ VGND VGND VPWR VPWR _331_ sky130_fd_sc_hd__a21oi_1
XFILLER_34_122 VPWR VGND VPWR VGND sky130_ef_sc_hd__decap_12
XFILLER_34_177 VPWR VGND VPWR VGND sky130_ef_sc_hd__decap_12
XPHY_EDGE_ROW_11_Left_51 VGND VGND VPWR VPWR sky130_fd_sc_hd__decap_3
XFILLER_25_166 VGND VGND VPWR VPWR sky130_fd_sc_hd__fill_2
XFILLER_25_199 VPWR VGND VPWR VGND sky130_ef_sc_hd__decap_12
XFILLER_31_55 VGND VGND VPWR VPWR sky130_fd_sc_hd__fill_1
XFILLER_0_210 VPWR VGND VPWR VGND sky130_ef_sc_hd__decap_12
Xoutput33 net33 VGND VGND VPWR VPWR i0[0] sky130_fd_sc_hd__buf_2
Xoutput55 net55 VGND VGND VPWR VPWR i2[2] sky130_fd_sc_hd__buf_2
Xoutput44 net44 VGND VGND VPWR VPWR i1[1] sky130_fd_sc_hd__buf_2
Xoutput66 net66 VGND VGND VPWR VPWR i3[3] sky130_fd_sc_hd__buf_2
X_644_ _129_ _130_ VGND VGND VPWR VPWR _131_ sky130_fd_sc_hd__and2b_1
X_713_ net15 _194_ VGND VGND VPWR VPWR _196_ sky130_fd_sc_hd__xnor2_1
X_575_ net5 _021_ net6 net7 VGND VGND VPWR VPWR _068_ sky130_fd_sc_hd__o31a_1
XFILLER_31_158 VGND VGND VPWR VPWR sky130_fd_sc_hd__decap_8
XFILLER_31_169 VPWR VGND VPWR VGND sky130_ef_sc_hd__decap_12
XFILLER_39_225 VPWR VGND VPWR VGND sky130_ef_sc_hd__decap_12
XFILLER_22_158 VGND VGND VPWR VPWR sky130_fd_sc_hd__decap_8
XFILLER_13_158 VGND VGND VPWR VPWR sky130_fd_sc_hd__fill_1
XFILLER_13_169 VPWR VGND VPWR VGND sky130_ef_sc_hd__decap_12
XFILLER_21_180 VGND VGND VPWR VPWR sky130_fd_sc_hd__decap_6
XFILLER_3_15 VPWR VGND VPWR VGND sky130_ef_sc_hd__decap_12
X_627_ net2 net18 VGND VGND VPWR VPWR _115_ sky130_fd_sc_hd__nand2_1
X_558_ net5 net6 _021_ VGND VGND VPWR VPWR _052_ sky130_fd_sc_hd__or3_4
XTAP_TAPCELL_ROW_14_142 VGND VPWR sky130_fd_sc_hd__tapvpwrvgnd_1
X_489_ net18 _461_ VGND VGND VPWR VPWR _463_ sky130_fd_sc_hd__xnor2_1
XTAP_TAPCELL_ROW_37_234 VGND VPWR sky130_fd_sc_hd__tapvpwrvgnd_1
XFILLER_10_139 VGND VGND VPWR VPWR sky130_fd_sc_hd__fill_1
XTAP_TAPCELL_ROW_20_167 VGND VPWR sky130_fd_sc_hd__tapvpwrvgnd_1
XFILLER_37_98 VPWR VGND VPWR VGND sky130_ef_sc_hd__decap_12
XFILLER_37_65 VGND VGND VPWR VPWR sky130_fd_sc_hd__fill_1
XFILLER_24_209 VPWR VGND VPWR VGND sky130_ef_sc_hd__decap_12
X_961_ net32 _228_ _423_ _424_ VGND VGND VPWR VPWR _425_ sky130_fd_sc_hd__o2bb2a_1
XFILLER_0_27 VGND VGND VPWR VPWR sky130_fd_sc_hd__fill_1
X_892_ _346_ _348_ VGND VGND VPWR VPWR _361_ sky130_fd_sc_hd__nand2_1
XFILLER_9_69 VPWR VGND VPWR VGND sky130_ef_sc_hd__decap_12
XTAP_TAPCELL_ROW_0_81 VGND VPWR sky130_fd_sc_hd__tapvpwrvgnd_1
X_944_ _407_ _408_ VGND VGND VPWR VPWR _409_ sky130_fd_sc_hd__and2b_1
X_875_ net17 net26 _343_ _344_ VGND VGND VPWR VPWR _345_ sky130_fd_sc_hd__o22a_1
XFILLER_1_81 VPWR VGND VPWR VGND sky130_ef_sc_hd__decap_12
XFILLER_4_219 VPWR VGND VPWR VGND sky130_ef_sc_hd__decap_12
XFILLER_20_13 VPWR VGND VPWR VGND sky130_ef_sc_hd__decap_12
XFILLER_20_57 VGND VGND VPWR VPWR sky130_fd_sc_hd__decap_8
XFILLER_29_11 VGND VGND VPWR VPWR sky130_fd_sc_hd__fill_1
X_660_ net28 _145_ VGND VGND VPWR VPWR _146_ sky130_fd_sc_hd__xor2_1
XFILLER_28_120 VPWR VGND VPWR VGND sky130_ef_sc_hd__decap_12
X_591_ net8 net74 VGND VGND VPWR VPWR _083_ sky130_fd_sc_hd__nor2_1
XFILLER_6_15 VPWR VGND VPWR VGND sky130_ef_sc_hd__decap_12
X_927_ net14 net6 VGND VGND VPWR VPWR _393_ sky130_fd_sc_hd__or2_1
X_858_ _328_ _329_ VGND VGND VPWR VPWR _330_ sky130_fd_sc_hd__nand2_1
X_789_ _264_ _265_ VGND VGND VPWR VPWR net66 sky130_fd_sc_hd__xor2_1
XFILLER_34_101 VGND VGND VPWR VPWR sky130_fd_sc_hd__fill_2
XFILLER_34_134 VGND VGND VPWR VPWR sky130_fd_sc_hd__decap_6
XFILLER_34_189 VGND VGND VPWR VPWR sky130_fd_sc_hd__decap_6
XFILLER_25_101 VGND VGND VPWR VPWR sky130_fd_sc_hd__decap_8
Xoutput34 net34 VGND VGND VPWR VPWR i0[1] sky130_fd_sc_hd__buf_2
Xoutput67 net67 VGND VGND VPWR VPWR i3[4] sky130_fd_sc_hd__buf_2
Xoutput56 net56 VGND VGND VPWR VPWR i2[3] sky130_fd_sc_hd__buf_2
XFILLER_0_222 VGND VGND VPWR VPWR sky130_fd_sc_hd__fill_2
Xoutput45 net45 VGND VGND VPWR VPWR i1[2] sky130_fd_sc_hd__buf_2
X_712_ net15 _194_ VGND VGND VPWR VPWR _195_ sky130_fd_sc_hd__nand2b_1
X_643_ net19 net3 VGND VGND VPWR VPWR _130_ sky130_fd_sc_hd__nand2_1
X_574_ net5 net6 net7 _021_ VGND VGND VPWR VPWR _067_ sky130_fd_sc_hd__nor4_2
XFILLER_31_104 VGND VGND VPWR VPWR sky130_fd_sc_hd__decap_8
XFILLER_39_237 VGND VGND VPWR VPWR sky130_fd_sc_hd__fill_1
XFILLER_21_192 VGND VGND VPWR VPWR sky130_fd_sc_hd__fill_2
XTAP_TAPCELL_ROW_23_176 VGND VPWR sky130_fd_sc_hd__tapvpwrvgnd_1
XFILLER_3_27 VPWR VGND VPWR VGND sky130_ef_sc_hd__decap_12
X_626_ net26 net43 VGND VGND VPWR VPWR _114_ sky130_fd_sc_hd__nor2_1
X_557_ _050_ _051_ VGND VGND VPWR VPWR net47 sky130_fd_sc_hd__xnor2_1
XTAP_TAPCELL_ROW_14_143 VGND VPWR sky130_fd_sc_hd__tapvpwrvgnd_1
X_488_ _451_ _461_ VGND VGND VPWR VPWR _462_ sky130_fd_sc_hd__and2_1
XFILLER_8_141 VPWR VGND VPWR VGND sky130_ef_sc_hd__decap_12
XFILLER_12_192 VGND VGND VPWR VPWR sky130_fd_sc_hd__decap_4
XTAP_TAPCELL_ROW_37_235 VGND VPWR sky130_fd_sc_hd__tapvpwrvgnd_1
XFILLER_27_207 VGND VGND VPWR VPWR sky130_fd_sc_hd__fill_1
XFILLER_5_111 VGND VGND VPWR VPWR sky130_fd_sc_hd__fill_1
XFILLER_5_166 VGND VGND VPWR VPWR sky130_fd_sc_hd__fill_2
X_609_ net8 net74 _085_ _086_ VGND VGND VPWR VPWR _100_ sky130_fd_sc_hd__and4_1
XFILLER_32_221 VPWR VGND VPWR VGND sky130_ef_sc_hd__decap_12
XFILLER_23_57 VPWR VGND VPWR VGND sky130_ef_sc_hd__decap_12
X_891_ _357_ _358_ VGND VGND VPWR VPWR _360_ sky130_fd_sc_hd__xnor2_1
X_960_ net32 _228_ _226_ VGND VGND VPWR VPWR _424_ sky130_fd_sc_hd__o21a_1
XFILLER_9_15 VPWR VGND VPWR VGND sky130_ef_sc_hd__decap_12
XTAP_TAPCELL_ROW_31_208 VGND VPWR sky130_fd_sc_hd__tapvpwrvgnd_1
XTAP_TAPCELL_ROW_0_82 VGND VPWR sky130_fd_sc_hd__tapvpwrvgnd_1
XFILLER_34_12 VPWR VGND VPWR VGND sky130_ef_sc_hd__decap_12
X_874_ net25 _017_ net26 net17 VGND VGND VPWR VPWR _344_ sky130_fd_sc_hd__a2bb2o_1
X_943_ net15 net7 VGND VGND VPWR VPWR _408_ sky130_fd_sc_hd__nand2_1
XFILLER_37_110 VGND VGND VPWR VPWR sky130_fd_sc_hd__fill_2
XFILLER_1_93 VPWR VGND VPWR VGND sky130_ef_sc_hd__decap_12
XFILLER_4_209 VGND VGND VPWR VPWR sky130_fd_sc_hd__decap_3
XFILLER_20_25 VGND VGND VPWR VPWR sky130_fd_sc_hd__decap_3
X_590_ _081_ _082_ VGND VGND VPWR VPWR net49 sky130_fd_sc_hd__xor2_1
XFILLER_6_27 VGND VGND VPWR VPWR sky130_fd_sc_hd__fill_1
XFILLER_10_91 VGND VGND VPWR VPWR sky130_fd_sc_hd__fill_2
XFILLER_19_110 VGND VGND VPWR VPWR sky130_fd_sc_hd__fill_2
XFILLER_19_143 VPWR VGND VPWR VGND sky130_ef_sc_hd__decap_12
X_788_ _251_ _253_ _250_ VGND VGND VPWR VPWR _265_ sky130_fd_sc_hd__o21bai_1
X_926_ net14 net6 VGND VGND VPWR VPWR _392_ sky130_fd_sc_hd__nand2_1
X_857_ _311_ _313_ _327_ VGND VGND VPWR VPWR _329_ sky130_fd_sc_hd__nand3_1
Xoutput57 net57 VGND VGND VPWR VPWR i2[4] sky130_fd_sc_hd__buf_2
Xoutput46 net46 VGND VGND VPWR VPWR i1[3] sky130_fd_sc_hd__buf_2
Xoutput35 net35 VGND VGND VPWR VPWR i0[2] sky130_fd_sc_hd__buf_2
Xoutput68 net68 VGND VGND VPWR VPWR i3[5] sky130_fd_sc_hd__buf_2
X_642_ net19 net3 VGND VGND VPWR VPWR _129_ sky130_fd_sc_hd__nor2_1
X_711_ _192_ _193_ VGND VGND VPWR VPWR _194_ sky130_fd_sc_hd__and2_1
X_573_ _065_ _066_ VGND VGND VPWR VPWR net48 sky130_fd_sc_hd__xnor2_1
XPHY_EDGE_ROW_19_Right_19 VGND VGND VPWR VPWR sky130_fd_sc_hd__decap_3
XPHY_EDGE_ROW_28_Right_28 VGND VGND VPWR VPWR sky130_fd_sc_hd__decap_3
XPHY_EDGE_ROW_37_Right_37 VGND VGND VPWR VPWR sky130_fd_sc_hd__decap_3
X_909_ _375_ _376_ VGND VGND VPWR VPWR net36 sky130_fd_sc_hd__nor2_1
XTAP_TAPCELL_ROW_17_152 VGND VPWR sky130_fd_sc_hd__tapvpwrvgnd_1
XFILLER_22_116 VPWR VGND VPWR VGND sky130_ef_sc_hd__decap_12
XFILLER_7_81 VPWR VGND VPWR VGND sky130_ef_sc_hd__decap_12
XFILLER_13_138 VGND VGND VPWR VPWR sky130_fd_sc_hd__decap_3
XTAP_TAPCELL_ROW_23_177 VGND VPWR sky130_fd_sc_hd__tapvpwrvgnd_1
XFILLER_3_39 VPWR VGND VPWR VGND sky130_ef_sc_hd__decap_12
X_625_ _020_ _113_ VGND VGND VPWR VPWR net44 sky130_fd_sc_hd__nor2_1
X_556_ _033_ _035_ _032_ VGND VGND VPWR VPWR _051_ sky130_fd_sc_hd__a21oi_1
X_487_ net17 _460_ VGND VGND VPWR VPWR _461_ sky130_fd_sc_hd__xnor2_4
XFILLER_8_197 VPWR VGND VPWR VGND sky130_ef_sc_hd__decap_12
XFILLER_8_153 VGND VGND VPWR VPWR sky130_fd_sc_hd__decap_6
XFILLER_10_108 VPWR VGND VPWR VGND sky130_ef_sc_hd__decap_12
XFILLER_12_15 VPWR VGND VPWR VGND sky130_ef_sc_hd__decap_12
XFILLER_37_45 VGND VGND VPWR VPWR sky130_fd_sc_hd__fill_1
XFILLER_18_208 VGND VGND VPWR VPWR sky130_fd_sc_hd__decap_8
XFILLER_5_123 VGND VGND VPWR VPWR sky130_fd_sc_hd__decap_8
X_608_ _097_ _098_ VGND VGND VPWR VPWR _099_ sky130_fd_sc_hd__nor2_1
X_539_ _012_ _020_ _011_ VGND VGND VPWR VPWR _035_ sky130_fd_sc_hd__a21o_1
XFILLER_32_233 VGND VGND VPWR VPWR sky130_fd_sc_hd__fill_1
XFILLER_23_222 VGND VGND VPWR VPWR sky130_fd_sc_hd__fill_2
XFILLER_23_69 VGND VGND VPWR VPWR sky130_fd_sc_hd__decap_3
X_890_ _358_ _357_ VGND VGND VPWR VPWR _359_ sky130_fd_sc_hd__nand2b_1
XFILLER_0_29 VPWR VGND VPWR VGND sky130_ef_sc_hd__decap_12
XFILLER_9_27 VPWR VGND VPWR VGND sky130_ef_sc_hd__decap_12
XTAP_TAPCELL_ROW_31_209 VGND VPWR sky130_fd_sc_hd__tapvpwrvgnd_1
XTAP_TAPCELL_ROW_0_83 VGND VPWR sky130_fd_sc_hd__tapvpwrvgnd_1
XFILLER_1_181 VPWR VGND VPWR VGND sky130_ef_sc_hd__decap_12
XFILLER_18_25 VGND VGND VPWR VPWR sky130_fd_sc_hd__decap_3
XFILLER_11_225 VGND VGND VPWR VPWR sky130_fd_sc_hd__decap_8
XFILLER_34_24 VGND VGND VPWR VPWR sky130_fd_sc_hd__decap_4
XFILLER_1_3 VPWR VGND VPWR VGND sky130_ef_sc_hd__decap_12
X_873_ net25 _017_ VGND VGND VPWR VPWR _343_ sky130_fd_sc_hd__and2_1
X_942_ net15 net7 VGND VGND VPWR VPWR _407_ sky130_fd_sc_hd__nor2_1
XPHY_EDGE_ROW_28_Left_68 VGND VGND VPWR VPWR sky130_fd_sc_hd__decap_3
XFILLER_29_57 VPWR VGND VPWR VGND sky130_ef_sc_hd__decap_12
XFILLER_29_79 VPWR VGND VPWR VGND sky130_ef_sc_hd__decap_12
XFILLER_28_144 VPWR VGND VPWR VGND sky130_ef_sc_hd__decap_12
XFILLER_28_188 VGND VGND VPWR VPWR sky130_fd_sc_hd__fill_1
XFILLER_10_81 VGND VGND VPWR VPWR sky130_fd_sc_hd__decap_3
X_925_ _390_ _391_ VGND VGND VPWR VPWR net37 sky130_fd_sc_hd__and2_1
XFILLER_19_90 VGND VGND VPWR VPWR sky130_fd_sc_hd__decap_8
XFILLER_19_155 VPWR VGND VPWR VGND sky130_ef_sc_hd__decap_12
X_787_ _262_ _254_ VGND VGND VPWR VPWR _264_ sky130_fd_sc_hd__xnor2_2
X_856_ _311_ _313_ _327_ VGND VGND VPWR VPWR _328_ sky130_fd_sc_hd__a21o_1
XFILLER_15_15 VGND VGND VPWR VPWR sky130_fd_sc_hd__fill_1
XFILLER_25_169 VGND VGND VPWR VPWR sky130_fd_sc_hd__decap_4
Xoutput69 net69 VGND VGND VPWR VPWR i3[6] sky130_fd_sc_hd__buf_2
Xoutput47 net47 VGND VGND VPWR VPWR i1[4] sky130_fd_sc_hd__buf_2
Xoutput58 net58 VGND VGND VPWR VPWR i2[5] sky130_fd_sc_hd__buf_2
Xoutput36 net36 VGND VGND VPWR VPWR i0[3] sky130_fd_sc_hd__buf_2
X_641_ _127_ _128_ VGND VGND VPWR VPWR net54 sky130_fd_sc_hd__nor2_1
X_572_ _049_ _051_ _048_ VGND VGND VPWR VPWR _066_ sky130_fd_sc_hd__o21a_1
X_710_ _190_ _191_ VGND VGND VPWR VPWR _193_ sky130_fd_sc_hd__or2_1
X_908_ _359_ _362_ _374_ VGND VGND VPWR VPWR _376_ sky130_fd_sc_hd__and3_1
XTAP_TAPCELL_ROW_17_153 VGND VPWR sky130_fd_sc_hd__tapvpwrvgnd_1
X_839_ _309_ _310_ VGND VGND VPWR VPWR _312_ sky130_fd_sc_hd__xor2_1
XFILLER_22_128 VGND VGND VPWR VPWR sky130_fd_sc_hd__decap_6