*SPEF "ieee 1481-1999"
*DESIGN "crossbar"
*DATE "16:53:20 Saturday May 16, 2026"
*VENDOR "The OpenROAD Project"
*PROGRAM "OpenROAD"
*VERSION "edf00dff99f6c40d67a30c0e22a8191c5d2ed9d6"
*DESIGN_FLOW "NAME_SCOPE LOCAL" "PIN_CAP NONE"
*DIVIDER /
*DELIMITER :
*BUS_DELIMITER []
*T_UNIT 1 NS
*C_UNIT 1 PF
*R_UNIT 1 OHM
*L_UNIT 1 HENRY

*NAME_MAP
*3 i0[0]
*4 i0[1]
*5 i0[2]
*6 i0[3]
*7 i0[4]
*8 i0[5]
*9 i0[6]
*10 i0[7]
*11 i0[8]
*12 i0[9]
*13 i1[0]
*14 i1[1]
*15 i1[2]
*16 i1[3]
*17 i1[4]
*18 i1[5]
*19 i1[6]
*20 i1[7]
*21 i1[8]
*22 i1[9]
*23 i2[0]
*24 i2[1]
*25 i2[2]
*26 i2[3]
*27 i2[4]
*28 i2[5]
*29 i2[6]
*30 i2[7]
*31 i2[8]
*32 i2[9]
*33 i3[0]
*34 i3[1]
*35 i3[2]
*36 i3[3]
*37 i3[4]
*38 i3[5]
*39 i3[6]
*40 i3[7]
*41 i3[8]
*42 i3[9]
*43 v0[0]
*44 v0[1]
*45 v0[2]
*46 v0[3]
*47 v0[4]
*48 v0[5]
*49 v0[6]
*50 v0[7]
*51 v1[0]
*52 v1[1]
*53 v1[2]
*54 v1[3]
*55 v1[4]
*56 v1[5]
*57 v1[6]
*58 v1[7]
*59 v2[0]
*60 v2[1]
*61 v2[2]
*62 v2[3]
*63 v2[4]
*64 v2[5]
*65 v2[6]
*66 v2[7]
*67 v3[0]
*68 v3[1]
*69 v3[2]
*70 v3[3]
*71 v3[4]
*72 v3[5]
*73 v3[6]
*74 v3[7]
*75 _000_
*76 _001_
*77 _002_
*78 _003_
*79 _004_
*80 _005_
*81 _006_
*82 _007_
*83 _008_
*84 _009_
*85 _010_
*86 _011_
*87 _012_
*88 _013_
*89 _014_
*90 _015_
*91 _016_
*92 _017_
*93 _018_
*94 _019_
*95 _020_
*96 _021_
*97 _022_
*98 _023_
*99 _024_
*100 _025_
*101 _026_
*102 _027_
*103 _028_
*104 _029_
*105 _030_
*106 _031_
*107 _032_
*108 _033_
*109 _034_
*110 _035_
*111 _036_
*112 _037_
*113 _038_
*114 _039_
*115 _040_
*116 _041_
*117 _042_
*118 _043_
*119 _044_
*120 _045_
*121 _046_
*122 _047_
*123 _048_
*124 _049_
*125 _050_
*126 _051_
*127 _052_
*128 _053_
*129 _054_
*130 _055_
*131 _056_
*132 _057_
*133 _058_
*134 _059_
*135 _060_
*136 _061_
*137 _062_
*138 _063_
*139 _064_
*140 _065_
*141 _066_
*142 _067_
*143 _068_
*144 _069_
*145 _070_
*146 _071_
*147 _072_
*148 _073_
*149 _074_
*150 _075_
*151 _076_
*152 _077_
*153 _078_
*154 _079_
*155 _080_
*156 _081_
*157 _082_
*158 _083_
*159 _084_
*160 _085_
*161 _086_
*162 _087_
*163 _088_
*164 _089_
*165 _090_
*166 _091_
*167 _092_
*168 _093_
*169 _094_
*170 _095_
*171 _096_
*172 _097_
*173 _098_
*174 _099_
*175 _100_
*176 _101_
*177 _102_
*178 _103_
*179 _104_
*180 _105_
*181 _106_
*182 _107_
*183 _108_
*184 _109_
*185 _110_
*186 _111_
*187 _112_
*188 _113_
*189 _114_
*190 _115_
*191 _116_
*192 _117_
*193 _118_
*194 _119_
*195 _120_
*196 _121_
*197 _122_
*198 _123_
*199 _124_
*200 _125_
*201 _126_
*202 _127_
*203 _128_
*204 _129_
*205 _130_
*206 _131_
*207 _132_
*208 _133_
*209 _134_
*210 _135_
*211 _136_
*212 _137_
*213 _138_
*214 _139_
*215 _140_
*216 _141_
*217 _142_
*218 _143_
*219 _144_
*220 _145_
*221 _146_
*222 _147_
*223 _148_
*224 _149_
*225 _150_
*226 _151_
*227 _152_
*228 _153_
*229 _154_
*230 _155_
*231 _156_
*232 _157_
*233 _158_
*234 _159_
*235 _160_
*236 _161_
*237 _162_
*238 _163_
*239 _164_
*240 _165_
*241 _166_
*242 _167_
*243 _168_
*244 _169_
*245 _170_
*246 _171_
*247 _172_
*248 _173_
*249 _174_
*250 _175_
*251 _176_
*252 _177_
*253 _178_
*254 _179_
*255 _180_
*256 _181_
*257 _182_
*258 _183_
*259 _184_
*260 _185_
*261 _186_
*262 _187_
*263 _188_
*264 _189_
*265 _190_
*266 _191_
*267 _192_
*268 _193_
*269 _194_
*270 _195_
*271 _196_
*272 _197_
*273 _198_
*274 _199_
*275 _200_
*276 _201_
*277 _202_
*278 _203_
*279 _204_
*280 _205_
*281 _206_
*282 _207_
*283 _208_
*284 _209_
*285 _210_
*286 _211_
*287 _212_
*288 _213_
*289 _214_
*290 _215_
*291 _216_
*292 _217_
*293 _218_
*294 _219_
*295 _220_
*296 _221_
*297 _222_
*298 _223_
*299 _224_
*300 _225_
*301 _226_
*302 _227_
*303 _228_
*304 _229_
*305 _230_
*306 _231_
*307 _232_
*308 _233_
*309 _234_
*310 _235_
*311 _236_
*312 _237_
*313 _238_
*314 _239_
*315 _240_
*316 _241_
*317 _242_
*318 _243_
*319 _244_
*320 _245_
*321 _246_
*322 _247_
*323 _248_
*324 _249_
*325 _250_
*326 _251_
*327 _252_
*328 _253_
*329 _254_
*330 _255_
*331 _256_
*332 _257_
*333 _258_
*334 _259_
*335 _260_
*336 _261_
*337 _262_
*338 _263_
*339 _264_
*340 _265_
*341 _266_
*342 _267_
*343 _268_
*344 _269_
*345 _270_
*346 _271_
*347 _272_
*348 _273_
*349 _274_
*350 _275_
*351 _276_
*352 _277_
*353 _278_
*354 _279_
*355 _280_
*356 _281_
*357 _282_
*358 _283_
*359 _284_
*360 _285_
*361 _286_
*362 _287_
*363 _288_
*364 _289_
*365 _290_
*366 _291_
*367 _292_
*368 _293_
*369 _294_
*370 _295_
*371 _296_
*372 _297_
*373 _298_
*374 _299_
*375 _300_
*376 _301_
*377 _302_
*378 _303_
*379 _304_
*380 _305_
*381 _306_
*382 _307_
*383 _308_
*384 _309_
*385 _310_
*386 _311_
*387 _312_
*388 _313_
*389 _314_
*390 _315_
*391 _316_
*392 _317_
*393 _318_
*394 _319_
*395 _320_
*396 _321_
*397 _322_
*398 _323_
*399 _324_
*400 _325_
*401 _326_
*402 _327_
*403 _328_
*404 _329_
*405 _330_
*406 _331_
*407 _332_
*408 _333_
*409 _334_
*410 _335_
*411 _336_
*412 _337_
*413 _338_
*414 _339_
*415 _340_
*416 _341_
*417 _342_
*418 _343_
*419 _344_
*420 _345_
*421 _346_
*422 _347_
*423 _348_
*424 _349_
*425 _350_
*426 _351_
*427 _352_
*428 _353_
*429 _354_
*430 _355_
*431 _356_
*432 _357_
*433 _358_
*434 _359_
*435 _360_
*436 _361_
*437 _362_
*438 _363_
*439 _364_
*440 _365_
*441 _366_
*442 _367_
*443 _368_
*444 _369_
*445 _370_
*446 _371_
*447 _372_
*448 _373_
*449 _374_
*450 _375_
*451 _376_
*452 _377_
*453 _378_
*454 _379_
*455 _380_
*456 _381_
*457 _382_
*458 _383_
*459 _384_
*460 _385_
*461 _386_
*462 _387_
*463 _388_
*464 _389_
*465 _390_
*466 _391_
*467 _392_
*468 _393_
*469 _394_
*470 _395_
*471 _396_
*472 _397_
*473 _398_
*474 _399_
*475 _400_
*476 _401_
*477 _402_
*478 _403_
*479 _404_
*480 _405_
*481 _406_
*482 _407_
*483 _408_
*484 _409_
*485 _410_
*486 _411_
*487 _412_
*488 _413_
*489 _414_
*490 _415_
*491 _416_
*492 _417_
*493 _418_
*494 _419_
*495 _420_
*496 _421_
*497 _422_
*498 _423_
*499 _424_
*500 _425_
*501 _426_
*502 _427_
*503 _428_
*504 _429_
*505 _430_
*506 _431_
*507 _432_
*508 _433_
*509 _434_
*510 _435_
*511 _436_
*512 _437_
*513 _438_
*514 _439_
*515 _440_
*516 _441_
*517 _442_
*518 _443_
*519 _444_
*520 _445_
*521 _446_
*522 _447_
*523 _448_
*524 _449_
*525 _450_
*526 _451_
*527 _452_
*528 _453_
*529 _454_
*530 _455_
*531 _456_
*532 _457_
*533 _458_
*534 _459_
*535 _460_
*536 _461_
*537 _462_
*538 _463_
*539 _464_
*540 _465_
*541 _466_
*542 _467_
*543 _468_
*544 _469_
*545 _470_
*546 _471_
*547 _472_
*548 _473_
*549 _474_
*550 _475_
*551 net1
*552 net10
*553 net11
*554 net12
*555 net13
*556 net14
*557 net15
*558 net16
*559 net17
*560 net18
*561 net19
*562 net2
*563 net20
*564 net21
*565 net22
*566 net23
*567 net24
*568 net25
*569 net26
*570 net27
*571 net28
*572 net29
*573 net3
*574 net30
*575 net31
*576 net32
*577 net33
*578 net34
*579 net35
*580 net36
*581 net37
*582 net38
*583 net39
*584 net4
*585 net40
*586 net41
*587 net42
*588 net43
*589 net44
*590 net45
*591 net46
*592 net47
*593 net48
*594 net49
*595 net5
*596 net50
*597 net51
*598 net52
*599 net53
*600 net54
*601 net55
*602 net56
*603 net57
*604 net58
*605 net59
*606 net6
*607 net60
*608 net61
*609 net62
*610 net63
*611 net64
*612 net65
*613 net66
*614 net67
*615 net68
*616 net69
*617 net7
*618 net70
*619 net71
*620 net72
*621 net73
*622 net74
*623 net75
*624 net76
*625 net77
*626 net78
*627 net79
*628 net8
*629 net80
*630 net9
*631 FILLER_0_105
*632 FILLER_0_113
*633 FILLER_0_119
*634 FILLER_0_126
*635 FILLER_0_135
*636 FILLER_0_141
*637 FILLER_0_147
*638 FILLER_0_15
*639 FILLER_0_154
*640 FILLER_0_166
*641 FILLER_0_169
*642 FILLER_0_175
*643 FILLER_0_182
*644 FILLER_0_194
*645 FILLER_0_197
*646 FILLER_0_205
*647 FILLER_0_210
*648 FILLER_0_222
*649 FILLER_0_27
*650 FILLER_0_29
*651 FILLER_0_3
*652 FILLER_0_41
*653 FILLER_0_53
*654 FILLER_0_57
*655 FILLER_0_65
*656 FILLER_0_70
*657 FILLER_0_82
*658 FILLER_0_85
*659 FILLER_0_93
*660 FILLER_0_98
*661 FILLER_10_108
*662 FILLER_10_120
*663 FILLER_10_133
*664 FILLER_10_139
*665 FILLER_10_144
*666 FILLER_10_152
*667 FILLER_10_171
*668 FILLER_10_19
*669 FILLER_10_192
*670 FILLER_10_197
*671 FILLER_10_208
*672 FILLER_10_217
*673 FILLER_10_221
*674 FILLER_10_233
*675 FILLER_10_27
*676 FILLER_10_29
*677 FILLER_10_41
*678 FILLER_10_45
*679 FILLER_10_53
*680 FILLER_10_66
*681 FILLER_10_7
*682 FILLER_10_73
*683 FILLER_10_81
*684 FILLER_10_85
*685 FILLER_10_91
*686 FILLER_11_106
*687 FILLER_11_113
*688 FILLER_11_133
*689 FILLER_11_141
*690 FILLER_11_149
*691 FILLER_11_166
*692 FILLER_11_173
*693 FILLER_11_185
*694 FILLER_11_19
*695 FILLER_11_208
*696 FILLER_11_220
*697 FILLER_11_225
*698 FILLER_11_233
*699 FILLER_11_27
*700 FILLER_11_47
*701 FILLER_11_60
*702 FILLER_11_64
*703 FILLER_11_7
*704 FILLER_11_71
*705 FILLER_11_91
*706 FILLER_12_108
*707 FILLER_12_112
*708 FILLER_12_124
*709 FILLER_12_132
*710 FILLER_12_15
*711 FILLER_12_159
*712 FILLER_12_167
*713 FILLER_12_179
*714 FILLER_12_185
*715 FILLER_12_192
*716 FILLER_12_202
*717 FILLER_12_211
*718 FILLER_12_219
*719 FILLER_12_227
*720 FILLER_12_233
*721 FILLER_12_27
*722 FILLER_12_29
*723 FILLER_12_3
*724 FILLER_12_41
*725 FILLER_12_56
*726 FILLER_12_71
*727 FILLER_12_83
*728 FILLER_12_85
*729 FILLER_12_97
*730 FILLER_13_111
*731 FILLER_13_121
*732 FILLER_13_133
*733 FILLER_13_138
*734 FILLER_13_146
*735 FILLER_13_15
*736 FILLER_13_158
*737 FILLER_13_167
*738 FILLER_13_169
*739 FILLER_13_181
*740 FILLER_13_189
*741 FILLER_13_196
*742 FILLER_13_231
*743 FILLER_13_24
*744 FILLER_13_3
*745 FILLER_13_36
*746 FILLER_13_44
*747 FILLER_13_64
*748 FILLER_13_76
*749 FILLER_13_88
*750 FILLER_14_100
*751 FILLER_14_105
*752 FILLER_14_117
*753 FILLER_14_132
*754 FILLER_14_154
*755 FILLER_14_160
*756 FILLER_14_168
*757 FILLER_14_186
*758 FILLER_14_194
*759 FILLER_14_197
*760 FILLER_14_209
*761 FILLER_14_22
*762 FILLER_14_29
*763 FILLER_14_41
*764 FILLER_14_49
*765 FILLER_14_60
*766 FILLER_14_69
*767 FILLER_14_7
*768 FILLER_14_82
*769 FILLER_14_92
*770 FILLER_15_113
*771 FILLER_15_125
*772 FILLER_15_129
*773 FILLER_15_136
*774 FILLER_15_148
*775 FILLER_15_15
*776 FILLER_15_160
*777 FILLER_15_169
*778 FILLER_15_181
*779 FILLER_15_196
*780 FILLER_15_204
*781 FILLER_15_225
*782 FILLER_15_42
*783 FILLER_15_54
*784 FILLER_15_65
*785 FILLER_15_7
*786 FILLER_15_73
*787 FILLER_15_88
*788 FILLER_15_96
*789 FILLER_16_104
*790 FILLER_16_11
*791 FILLER_16_116
*792 FILLER_16_128
*793 FILLER_16_141
*794 FILLER_16_153
*795 FILLER_16_181
*796 FILLER_16_195
*797 FILLER_16_209
*798 FILLER_16_42
*799 FILLER_16_54
*800 FILLER_16_64
*801 FILLER_16_76
*802 FILLER_16_85
*803 FILLER_16_93
*804 FILLER_17_106
*805 FILLER_17_113
*806 FILLER_17_125
*807 FILLER_17_13
*808 FILLER_17_143
*809 FILLER_17_155
*810 FILLER_17_161
*811 FILLER_17_177
*812 FILLER_17_189
*813 FILLER_17_199
*814 FILLER_17_211
*815 FILLER_17_217
*816 FILLER_17_228
*817 FILLER_17_25
*818 FILLER_17_3
*819 FILLER_17_42
*820 FILLER_17_53
*821 FILLER_17_57
*822 FILLER_17_67
*823 FILLER_17_79
*824 FILLER_17_91
*825 FILLER_18_119
*826 FILLER_18_131
*827 FILLER_18_141
*828 FILLER_18_153
*829 FILLER_18_161
*830 FILLER_18_165
*831 FILLER_18_183
*832 FILLER_18_195
*833 FILLER_18_197
*834 FILLER_18_208
*835 FILLER_18_216
*836 FILLER_18_221
*837 FILLER_18_25
*838 FILLER_18_29
*839 FILLER_18_39
*840 FILLER_18_51
*841 FILLER_18_62
*842 FILLER_18_71
*843 FILLER_18_83
*844 FILLER_18_85
*845 FILLER_18_97
*846 FILLER_19_110
*847 FILLER_19_113
*848 FILLER_19_135
*849 FILLER_19_143
*850 FILLER_19_155
*851 FILLER_19_167
*852 FILLER_19_169
*853 FILLER_19_183
*854 FILLER_19_191
*855 FILLER_19_201
*856 FILLER_19_213
*857 FILLER_19_222
*858 FILLER_19_231
*859 FILLER_19_24
*860 FILLER_19_45
*861 FILLER_19_57
*862 FILLER_19_86
*863 FILLER_19_90
*864 FILLER_19_98
*865 FILLER_1_105
*866 FILLER_1_111
*867 FILLER_1_113
*868 FILLER_1_125
*869 FILLER_1_137
*870 FILLER_1_149
*871 FILLER_1_15
*872 FILLER_1_161
*873 FILLER_1_167
*874 FILLER_1_169
*875 FILLER_1_181
*876 FILLER_1_193
*877 FILLER_1_205
*878 FILLER_1_217
*879 FILLER_1_223
*880 FILLER_1_225
*881 FILLER_1_229
*882 FILLER_1_27
*883 FILLER_1_3
*884 FILLER_1_39
*885 FILLER_1_51
*886 FILLER_1_55
*887 FILLER_1_57
*888 FILLER_1_69
*889 FILLER_1_81
*890 FILLER_1_93
*891 FILLER_20_110
*892 FILLER_20_118
*893 FILLER_20_129
*894 FILLER_20_13
*895 FILLER_20_137
*896 FILLER_20_158
*897 FILLER_20_170
*898 FILLER_20_178
*899 FILLER_20_182
*900 FILLER_20_192
*901 FILLER_20_197
*902 FILLER_20_205
*903 FILLER_20_25
*904 FILLER_20_33
*905 FILLER_20_45
*906 FILLER_20_57
*907 FILLER_20_65
*908 FILLER_20_85
*909 FILLER_20_98
*910 FILLER_21_111
*911 FILLER_21_116
*912 FILLER_21_129
*913 FILLER_21_137
*914 FILLER_21_145
*915 FILLER_21_15
*916 FILLER_21_158
*917 FILLER_21_166
*918 FILLER_21_169
*919 FILLER_21_173
*920 FILLER_21_180
*921 FILLER_21_192
*922 FILLER_21_204
*923 FILLER_21_212
*924 FILLER_21_221
*925 FILLER_21_29
*926 FILLER_21_43
*927 FILLER_21_64
*928 FILLER_21_7
*929 FILLER_21_83
*930 FILLER_21_97
*931 FILLER_22_102
*932 FILLER_22_107
*933 FILLER_22_116
*934 FILLER_22_128
*935 FILLER_22_134
*936 FILLER_22_139
*937 FILLER_22_146
*938 FILLER_22_158
*939 FILLER_22_166
*940 FILLER_22_18
*941 FILLER_22_187
*942 FILLER_22_193
*943 FILLER_22_197
*944 FILLER_22_216
*945 FILLER_22_228
*946 FILLER_22_26
*947 FILLER_22_32
*948 FILLER_22_55
*949 FILLER_22_61
*950 FILLER_22_69
*951 FILLER_22_7
*952 FILLER_22_80
*953 FILLER_22_85
*954 FILLER_22_93
*955 FILLER_23_102
*956 FILLER_23_11
*957 FILLER_23_110
*958 FILLER_23_113
*959 FILLER_23_125
*960 FILLER_23_133
*961 FILLER_23_148
*962 FILLER_23_160
*963 FILLER_23_17
*964 FILLER_23_172
*965 FILLER_23_179
*966 FILLER_23_191
*967 FILLER_23_203
*968 FILLER_23_222
*969 FILLER_23_225
*970 FILLER_23_237
*971 FILLER_23_29
*972 FILLER_23_3
*973 FILLER_23_37
*974 FILLER_23_55
*975 FILLER_23_57
*976 FILLER_23_69
*977 FILLER_23_86
*978 FILLER_23_98
*979 FILLER_24_103
*980 FILLER_24_113
*981 FILLER_24_141
*982 FILLER_24_153
*983 FILLER_24_161
*984 FILLER_24_172
*985 FILLER_24_184
*986 FILLER_24_197
*987 FILLER_24_209
*988 FILLER_24_22
*989 FILLER_24_221
*990 FILLER_24_225
*991 FILLER_24_229
*992 FILLER_24_233
*993 FILLER_24_29
*994 FILLER_24_41
*995 FILLER_24_53
*996 FILLER_24_58
*997 FILLER_24_70
*998 FILLER_24_82
*999 FILLER_24_85
*1000 FILLER_24_93
*1001 FILLER_25_101
*1002 FILLER_25_109
*1003 FILLER_25_118
*1004 FILLER_25_141
*1005 FILLER_25_153
*1006 FILLER_25_166
*1007 FILLER_25_169
*1008 FILLER_25_180
*1009 FILLER_25_19
*1010 FILLER_25_199
*1011 FILLER_25_211
*1012 FILLER_25_237
*1013 FILLER_25_27
*1014 FILLER_25_39
*1015 FILLER_25_57
*1016 FILLER_25_65
*1017 FILLER_25_77
*1018 FILLER_25_89
*1019 FILLER_26_109
*1020 FILLER_26_117
*1021 FILLER_26_130
*1022 FILLER_26_138
*1023 FILLER_26_141
*1024 FILLER_26_153
*1025 FILLER_26_174
*1026 FILLER_26_186
*1027 FILLER_26_195
*1028 FILLER_26_204
*1029 FILLER_26_216
*1030 FILLER_26_224
*1031 FILLER_26_232
*1032 FILLER_26_29
*1033 FILLER_26_41
*1034 FILLER_26_50
*1035 FILLER_26_58
*1036 FILLER_26_7
*1037 FILLER_26_70
*1038 FILLER_26_83
*1039 FILLER_26_85
*1040 FILLER_26_97
*1041 FILLER_27_111
*1042 FILLER_27_113
*1043 FILLER_27_125
*1044 FILLER_27_143
*1045 FILLER_27_155
*1046 FILLER_27_163
*1047 FILLER_27_167
*1048 FILLER_27_169
*1049 FILLER_27_18
*1050 FILLER_27_181
*1051 FILLER_27_194
*1052 FILLER_27_201
*1053 FILLER_27_207
*1054 FILLER_27_220
*1055 FILLER_27_233
*1056 FILLER_27_30
*1057 FILLER_27_7
*1058 FILLER_27_70
*1059 FILLER_27_78
*1060 FILLER_28_102
*1061 FILLER_28_114
*1062 FILLER_28_120
*1063 FILLER_28_138
*1064 FILLER_28_144
*1065 FILLER_28_15
*1066 FILLER_28_156
*1067 FILLER_28_168
*1068 FILLER_28_180
*1069 FILLER_28_188
*1070 FILLER_28_202
*1071 FILLER_28_208
*1072 FILLER_28_218
*1073 FILLER_28_231
*1074 FILLER_28_27
*1075 FILLER_28_29
*1076 FILLER_28_3
*1077 FILLER_28_38
*1078 FILLER_28_49
*1079 FILLER_28_72
*1080 FILLER_29_11
*1081 FILLER_29_121
*1082 FILLER_29_129
*1083 FILLER_29_144
*1084 FILLER_29_156
*1085 FILLER_29_169
*1086 FILLER_29_18
*1087 FILLER_29_181
*1088 FILLER_29_193
*1089 FILLER_29_200
*1090 FILLER_29_212
*1091 FILLER_29_216
*1092 FILLER_29_225
*1093 FILLER_29_233
*1094 FILLER_29_29
*1095 FILLER_29_36
*1096 FILLER_29_48
*1097 FILLER_29_57
*1098 FILLER_29_7
*1099 FILLER_29_79
*1100 FILLER_29_91
*1101 FILLER_2_109
*1102 FILLER_2_121
*1103 FILLER_2_133
*1104 FILLER_2_139
*1105 FILLER_2_141
*1106 FILLER_2_15
*1107 FILLER_2_153
*1108 FILLER_2_165
*1109 FILLER_2_174
*1110 FILLER_2_184
*1111 FILLER_2_197
*1112 FILLER_2_214
*1113 FILLER_2_222
*1114 FILLER_2_27
*1115 FILLER_2_29
*1116 FILLER_2_3
*1117 FILLER_2_41
*1118 FILLER_2_53
*1119 FILLER_2_65
*1120 FILLER_2_77
*1121 FILLER_2_83
*1122 FILLER_2_85
*1123 FILLER_2_97
*1124 FILLER_30_109
*1125 FILLER_30_134
*1126 FILLER_30_141
*1127 FILLER_30_15
*1128 FILLER_30_153
*1129 FILLER_30_165
*1130 FILLER_30_177
*1131 FILLER_30_189
*1132 FILLER_30_195
*1133 FILLER_30_197
*1134 FILLER_30_209
*1135 FILLER_30_221
*1136 FILLER_30_233
*1137 FILLER_30_26
*1138 FILLER_30_36
*1139 FILLER_30_48
*1140 FILLER_30_60
*1141 FILLER_30_7
*1142 FILLER_30_79
*1143 FILLER_30_83
*1144 FILLER_30_85
*1145 FILLER_30_97
*1146 FILLER_31_104
*1147 FILLER_31_113
*1148 FILLER_31_122
*1149 FILLER_31_130
*1150 FILLER_31_146
*1151 FILLER_31_158
*1152 FILLER_31_166
*1153 FILLER_31_169
*1154 FILLER_31_181
*1155 FILLER_31_193
*1156 FILLER_31_205
*1157 FILLER_31_217
*1158 FILLER_31_223
*1159 FILLER_31_225
*1160 FILLER_31_233
*1161 FILLER_31_37
*1162 FILLER_31_43
*1163 FILLER_31_51
*1164 FILLER_31_55
*1165 FILLER_31_62
*1166 FILLER_31_74
*1167 FILLER_31_80
*1168 FILLER_31_92
*1169 FILLER_32_102
*1170 FILLER_32_122
*1171 FILLER_32_132
*1172 FILLER_32_146
*1173 FILLER_32_158
*1174 FILLER_32_170
*1175 FILLER_32_182
*1176 FILLER_32_194
*1177 FILLER_32_197
*1178 FILLER_32_209
*1179 FILLER_32_221
*1180 FILLER_32_233
*1181 FILLER_32_27
*1182 FILLER_32_29
*1183 FILLER_32_3
*1184 FILLER_32_43
*1185 FILLER_32_51
*1186 FILLER_32_72
*1187 FILLER_32_85
*1188 FILLER_33_110
*1189 FILLER_33_120
*1190 FILLER_33_13
*1191 FILLER_33_132
*1192 FILLER_33_144
*1193 FILLER_33_156
*1194 FILLER_33_169
*1195 FILLER_33_181
*1196 FILLER_33_193
*1197 FILLER_33_205
*1198 FILLER_33_217
*1199 FILLER_33_223
*1200 FILLER_33_225
*1201 FILLER_33_237
*1202 FILLER_33_38
*1203 FILLER_33_50
*1204 FILLER_33_57
*1205 FILLER_33_7
*1206 FILLER_33_74
*1207 FILLER_33_84
*1208 FILLER_34_101
*1209 FILLER_34_110
*1210 FILLER_34_12
*1211 FILLER_34_122
*1212 FILLER_34_134
*1213 FILLER_34_141
*1214 FILLER_34_153
*1215 FILLER_34_165
*1216 FILLER_34_177
*1217 FILLER_34_189
*1218 FILLER_34_195
*1219 FILLER_34_197
*1220 FILLER_34_209
*1221 FILLER_34_221
*1222 FILLER_34_233
*1223 FILLER_34_237
*1224 FILLER_34_24
*1225 FILLER_34_38
*1226 FILLER_34_50
*1227 FILLER_34_62
*1228 FILLER_34_74
*1229 FILLER_35_104
*1230 FILLER_35_113
*1231 FILLER_35_125
*1232 FILLER_35_137
*1233 FILLER_35_149
*1234 FILLER_35_161
*1235 FILLER_35_167
*1236 FILLER_35_169
*1237 FILLER_35_181
*1238 FILLER_35_19
*1239 FILLER_35_193
*1240 FILLER_35_205
*1241 FILLER_35_217
*1242 FILLER_35_223
*1243 FILLER_35_225
*1244 FILLER_35_237
*1245 FILLER_35_27
*1246 FILLER_35_42
*1247 FILLER_35_50
*1248 FILLER_35_60
*1249 FILLER_35_7
*1250 FILLER_35_72
*1251 FILLER_35_92
*1252 FILLER_36_109
*1253 FILLER_36_121
*1254 FILLER_36_133
*1255 FILLER_36_139
*1256 FILLER_36_141
*1257 FILLER_36_153
*1258 FILLER_36_165
*1259 FILLER_36_177
*1260 FILLER_36_189
*1261 FILLER_36_19
*1262 FILLER_36_195
*1263 FILLER_36_197
*1264 FILLER_36_209
*1265 FILLER_36_221
*1266 FILLER_36_233
*1267 FILLER_36_237
*1268 FILLER_36_27
*1269 FILLER_36_29
*1270 FILLER_36_33
*1271 FILLER_36_37
*1272 FILLER_36_45
*1273 FILLER_36_51
*1274 FILLER_36_68
*1275 FILLER_36_7
*1276 FILLER_36_80
*1277 FILLER_36_85
*1278 FILLER_36_97
*1279 FILLER_37_110
*1280 FILLER_37_113
*1281 FILLER_37_125
*1282 FILLER_37_137
*1283 FILLER_37_149
*1284 FILLER_37_15
*1285 FILLER_37_161
*1286 FILLER_37_167
*1287 FILLER_37_169
*1288 FILLER_37_181
*1289 FILLER_37_193
*1290 FILLER_37_205
*1291 FILLER_37_217
*1292 FILLER_37_223
*1293 FILLER_37_225
*1294 FILLER_37_237
*1295 FILLER_37_27
*1296 FILLER_37_3
*1297 FILLER_37_39
*1298 FILLER_37_45
*1299 FILLER_37_57
*1300 FILLER_37_65
*1301 FILLER_37_74
*1302 FILLER_37_86
*1303 FILLER_37_98
*1304 FILLER_38_105
*1305 FILLER_38_112
*1306 FILLER_38_124
*1307 FILLER_38_136
*1308 FILLER_38_141
*1309 FILLER_38_15
*1310 FILLER_38_153
*1311 FILLER_38_165
*1312 FILLER_38_177
*1313 FILLER_38_189
*1314 FILLER_38_195
*1315 FILLER_38_197
*1316 FILLER_38_209
*1317 FILLER_38_221
*1318 FILLER_38_233
*1319 FILLER_38_237
*1320 FILLER_38_27
*1321 FILLER_38_29
*1322 FILLER_38_3
*1323 FILLER_38_44
*1324 FILLER_38_56
*1325 FILLER_38_61
*1326 FILLER_38_70
*1327 FILLER_38_82
*1328 FILLER_38_85
*1329 FILLER_38_97
*1330 FILLER_39_100
*1331 FILLER_39_110
*1332 FILLER_39_113
*1333 FILLER_39_119
*1334 FILLER_39_126
*1335 FILLER_39_134
*1336 FILLER_39_141
*1337 FILLER_39_147
*1338 FILLER_39_15
*1339 FILLER_39_154
*1340 FILLER_39_166
*1341 FILLER_39_169
*1342 FILLER_39_181
*1343 FILLER_39_193
*1344 FILLER_39_197
*1345 FILLER_39_209
*1346 FILLER_39_221
*1347 FILLER_39_225
*1348 FILLER_39_237
*1349 FILLER_39_27
*1350 FILLER_39_29
*1351 FILLER_39_3
*1352 FILLER_39_41
*1353 FILLER_39_49
*1354 FILLER_39_55
*1355 FILLER_39_57
*1356 FILLER_39_69
*1357 FILLER_39_77
*1358 FILLER_39_83
*1359 FILLER_39_85
*1360 FILLER_39_96
*1361 FILLER_3_105
*1362 FILLER_3_111
*1363 FILLER_3_113
*1364 FILLER_3_125
*1365 FILLER_3_137
*1366 FILLER_3_141
*1367 FILLER_3_149
*1368 FILLER_3_15
*1369 FILLER_3_153
*1370 FILLER_3_165
*1371 FILLER_3_169
*1372 FILLER_3_174
*1373 FILLER_3_181
*1374 FILLER_3_196
*1375 FILLER_3_208
*1376 FILLER_3_215
*1377 FILLER_3_223
*1378 FILLER_3_236
*1379 FILLER_3_27
*1380 FILLER_3_3
*1381 FILLER_3_39
*1382 FILLER_3_51
*1383 FILLER_3_55
*1384 FILLER_3_57
*1385 FILLER_3_69
*1386 FILLER_3_81
*1387 FILLER_3_93
*1388 FILLER_4_116
*1389 FILLER_4_128
*1390 FILLER_4_141
*1391 FILLER_4_15
*1392 FILLER_4_151
*1393 FILLER_4_163
*1394 FILLER_4_167
*1395 FILLER_4_184
*1396 FILLER_4_197
*1397 FILLER_4_209
*1398 FILLER_4_219
*1399 FILLER_4_231
*1400 FILLER_4_27
*1401 FILLER_4_29
*1402 FILLER_4_3
*1403 FILLER_4_41
*1404 FILLER_4_53
*1405 FILLER_4_65
*1406 FILLER_4_77
*1407 FILLER_4_83
*1408 FILLER_4_85
*1409 FILLER_4_97
*1410 FILLER_5_105
*1411 FILLER_5_111
*1412 FILLER_5_123
*1413 FILLER_5_131
*1414 FILLER_5_146
*1415 FILLER_5_15
*1416 FILLER_5_158
*1417 FILLER_5_166
*1418 FILLER_5_181
*1419 FILLER_5_193
*1420 FILLER_5_206
*1421 FILLER_5_214
*1422 FILLER_5_228
*1423 FILLER_5_27
*1424 FILLER_5_3
*1425 FILLER_5_39
*1426 FILLER_5_51
*1427 FILLER_5_55
*1428 FILLER_5_57
*1429 FILLER_5_69
*1430 FILLER_5_81
*1431 FILLER_5_93
*1432 FILLER_6_101
*1433 FILLER_6_118
*1434 FILLER_6_129
*1435 FILLER_6_137
*1436 FILLER_6_15
*1437 FILLER_6_153
*1438 FILLER_6_165
*1439 FILLER_6_177
*1440 FILLER_6_208
*1441 FILLER_6_220
*1442 FILLER_6_231
*1443 FILLER_6_27
*1444 FILLER_6_29
*1445 FILLER_6_3
*1446 FILLER_6_41
*1447 FILLER_6_53
*1448 FILLER_6_65
*1449 FILLER_6_77
*1450 FILLER_6_83
*1451 FILLER_6_85
*1452 FILLER_6_97
*1453 FILLER_7_105
*1454 FILLER_7_111
*1455 FILLER_7_121
*1456 FILLER_7_140
*1457 FILLER_7_15
*1458 FILLER_7_152
*1459 FILLER_7_164
*1460 FILLER_7_176
*1461 FILLER_7_188
*1462 FILLER_7_202
*1463 FILLER_7_214
*1464 FILLER_7_222
*1465 FILLER_7_232
*1466 FILLER_7_27
*1467 FILLER_7_3
*1468 FILLER_7_39
*1469 FILLER_7_51
*1470 FILLER_7_55
*1471 FILLER_7_57
*1472 FILLER_7_69
*1473 FILLER_7_81
*1474 FILLER_7_93
*1475 FILLER_8_105
*1476 FILLER_8_114
*1477 FILLER_8_126
*1478 FILLER_8_139
*1479 FILLER_8_141
*1480 FILLER_8_15
*1481 FILLER_8_153
*1482 FILLER_8_169
*1483 FILLER_8_181
*1484 FILLER_8_193
*1485 FILLER_8_197
*1486 FILLER_8_209
*1487 FILLER_8_221
*1488 FILLER_8_227
*1489 FILLER_8_231
*1490 FILLER_8_237
*1491 FILLER_8_27
*1492 FILLER_8_29
*1493 FILLER_8_3
*1494 FILLER_8_41
*1495 FILLER_8_53
*1496 FILLER_8_62
*1497 FILLER_8_74
*1498 FILLER_8_82
*1499 FILLER_8_85
*1500 FILLER_8_97
*1501 FILLER_9_103
*1502 FILLER_9_111
*1503 FILLER_9_113
*1504 FILLER_9_125
*1505 FILLER_9_137
*1506 FILLER_9_149
*1507 FILLER_9_15
*1508 FILLER_9_157
*1509 FILLER_9_167
*1510 FILLER_9_175
*1511 FILLER_9_183
*1512 FILLER_9_201
*1513 FILLER_9_208
*1514 FILLER_9_220
*1515 FILLER_9_232
*1516 FILLER_9_27
*1517 FILLER_9_3
*1518 FILLER_9_39
*1519 FILLER_9_51
*1520 FILLER_9_55
*1521 FILLER_9_57
*1522 FILLER_9_69
*1523 FILLER_9_81
*1524 FILLER_9_93
*1525 PHY_EDGE_ROW_0_Left_40
*1526 PHY_EDGE_ROW_0_Right_0
*1527 PHY_EDGE_ROW_10_Left_50
*1528 PHY_EDGE_ROW_10_Right_10
*1529 PHY_EDGE_ROW_11_Left_51
*1530 PHY_EDGE_ROW_11_Right_11
*1531 PHY_EDGE_ROW_12_Left_52
*1532 PHY_EDGE_ROW_12_Right_12
*1533 PHY_EDGE_ROW_13_Left_53
*1534 PHY_EDGE_ROW_13_Right_13
*1535 PHY_EDGE_ROW_14_Left_54
*1536 PHY_EDGE_ROW_14_Right_14
*1537 PHY_EDGE_ROW_15_Left_55
*1538 PHY_EDGE_ROW_15_Right_15
*1539 PHY_EDGE_ROW_16_Left_56
*1540 PHY_EDGE_ROW_16_Right_16
*1541 PHY_EDGE_ROW_17_Left_57
*1542 PHY_EDGE_ROW_17_Right_17
*1543 PHY_EDGE_ROW_18_Left_58
*1544 PHY_EDGE_ROW_18_Right_18
*1545 PHY_EDGE_ROW_19_Left_59
*1546 PHY_EDGE_ROW_19_Right_19
*1547 PHY_EDGE_ROW_1_Left_41
*1548 PHY_EDGE_ROW_1_Right_1
*1549 PHY_EDGE_ROW_20_Left_60
*1550 PHY_EDGE_ROW_20_Right_20
*1551 PHY_EDGE_ROW_21_Left_61
*1552 PHY_EDGE_ROW_21_Right_21
*1553 PHY_EDGE_ROW_22_Left_62
*1554 PHY_EDGE_ROW_22_Right_22
*1555 PHY_EDGE_ROW_23_Left_63
*1556 PHY_EDGE_ROW_23_Right_23
*1557 PHY_EDGE_ROW_24_Left_64
*1558 PHY_EDGE_ROW_24_Right_24
*1559 PHY_EDGE_ROW_25_Left_65
*1560 PHY_EDGE_ROW_25_Right_25
*1561 PHY_EDGE_ROW_26_Left_66
*1562 PHY_EDGE_ROW_26_Right_26
*1563 PHY_EDGE_ROW_27_Left_67
*1564 PHY_EDGE_ROW_27_Right_27
*1565 PHY_EDGE_ROW_28_Left_68
*1566 PHY_EDGE_ROW_28_Right_28
*1567 PHY_EDGE_ROW_29_Left_69
*1568 PHY_EDGE_ROW_29_Right_29
*1569 PHY_EDGE_ROW_2_Left_42
*1570 PHY_EDGE_ROW_2_Right_2
*1571 PHY_EDGE_ROW_30_Left_70
*1572 PHY_EDGE_ROW_30_Right_30
*1573 PHY_EDGE_ROW_31_Left_71
*1574 PHY_EDGE_ROW_31_Right_31
*1575 PHY_EDGE_ROW_32_Left_72
*1576 PHY_EDGE_ROW_32_Right_32
*1577 PHY_EDGE_ROW_33_Left_73
*1578 PHY_EDGE_ROW_33_Right_33
*1579 PHY_EDGE_ROW_34_Left_74
*1580 PHY_EDGE_ROW_34_Right_34
*1581 PHY_EDGE_ROW_35_Left_75
*1582 PHY_EDGE_ROW_35_Right_35
*1583 PHY_EDGE_ROW_36_Left_76
*1584 PHY_EDGE_ROW_36_Right_36
*1585 PHY_EDGE_ROW_37_Left_77
*1586 PHY_EDGE_ROW_37_Right_37
*1587 PHY_EDGE_ROW_38_Left_78
*1588 PHY_EDGE_ROW_38_Right_38
*1589 PHY_EDGE_ROW_39_Left_79
*1590 PHY_EDGE_ROW_39_Right_39
*1591 PHY_EDGE_ROW_3_Left_43
*1592 PHY_EDGE_ROW_3_Right_3
*1593 PHY_EDGE_ROW_4_Left_44
*1594 PHY_EDGE_ROW_4_Right_4
*1595 PHY_EDGE_ROW_5_Left_45
*1596 PHY_EDGE_ROW_5_Right_5
*1597 PHY_EDGE_ROW_6_Left_46
*1598 PHY_EDGE_ROW_6_Right_6
*1599 PHY_EDGE_ROW_7_Left_47
*1600 PHY_EDGE_ROW_7_Right_7
*1601 PHY_EDGE_ROW_8_Left_48
*1602 PHY_EDGE_ROW_8_Right_8
*1603 PHY_EDGE_ROW_9_Left_49
*1604 PHY_EDGE_ROW_9_Right_9
*1605 TAP_TAPCELL_ROW_0_80
*1606 TAP_TAPCELL_ROW_0_81
*1607 TAP_TAPCELL_ROW_0_82
*1608 TAP_TAPCELL_ROW_0_83
*1609 TAP_TAPCELL_ROW_0_84
*1610 TAP_TAPCELL_ROW_0_85
*1611 TAP_TAPCELL_ROW_0_86
*1612 TAP_TAPCELL_ROW_0_87
*1613 TAP_TAPCELL_ROW_10_124
*1614 TAP_TAPCELL_ROW_10_125
*1615 TAP_TAPCELL_ROW_10_126
*1616 TAP_TAPCELL_ROW_10_127
*1617 TAP_TAPCELL_ROW_11_128
*1618 TAP_TAPCELL_ROW_11_129
*1619 TAP_TAPCELL_ROW_11_130
*1620 TAP_TAPCELL_ROW_11_131
*1621 TAP_TAPCELL_ROW_12_132
*1622 TAP_TAPCELL_ROW_12_133
*1623 TAP_TAPCELL_ROW_12_134
*1624 TAP_TAPCELL_ROW_12_135
*1625 TAP_TAPCELL_ROW_13_136
*1626 TAP_TAPCELL_ROW_13_137
*1627 TAP_TAPCELL_ROW_13_138
*1628 TAP_TAPCELL_ROW_13_139
*1629 TAP_TAPCELL_ROW_14_140
*1630 TAP_TAPCELL_ROW_14_141
*1631 TAP_TAPCELL_ROW_14_142
*1632 TAP_TAPCELL_ROW_14_143
*1633 TAP_TAPCELL_ROW_15_144
*1634 TAP_TAPCELL_ROW_15_145
*1635 TAP_TAPCELL_ROW_15_146
*1636 TAP_TAPCELL_ROW_15_147
*1637 TAP_TAPCELL_ROW_16_148
*1638 TAP_TAPCELL_ROW_16_149
*1639 TAP_TAPCELL_ROW_16_150
*1640 TAP_TAPCELL_ROW_16_151
*1641 TAP_TAPCELL_ROW_17_152
*1642 TAP_TAPCELL_ROW_17_153
*1643 TAP_TAPCELL_ROW_17_154
*1644 TAP_TAPCELL_ROW_17_155
*1645 TAP_TAPCELL_ROW_18_156
*1646 TAP_TAPCELL_ROW_18_157
*1647 TAP_TAPCELL_ROW_18_158
*1648 TAP_TAPCELL_ROW_18_159
*1649 TAP_TAPCELL_ROW_19_160
*1650 TAP_TAPCELL_ROW_19_161
*1651 TAP_TAPCELL_ROW_19_162
*1652 TAP_TAPCELL_ROW_19_163
*1653 TAP_TAPCELL_ROW_1_88
*1654 TAP_TAPCELL_ROW_1_89
*1655 TAP_TAPCELL_ROW_1_90
*1656 TAP_TAPCELL_ROW_1_91
*1657 TAP_TAPCELL_ROW_20_164
*1658 TAP_TAPCELL_ROW_20_165
*1659 TAP_TAPCELL_ROW_20_166
*1660 TAP_TAPCELL_ROW_20_167
*1661 TAP_TAPCELL_ROW_21_168
*1662 TAP_TAPCELL_ROW_21_169
*1663 TAP_TAPCELL_ROW_21_170
*1664 TAP_TAPCELL_ROW_21_171
*1665 TAP_TAPCELL_ROW_22_172
*1666 TAP_TAPCELL_ROW_22_173
*1667 TAP_TAPCELL_ROW_22_174
*1668 TAP_TAPCELL_ROW_22_175
*1669 TAP_TAPCELL_ROW_23_176
*1670 TAP_TAPCELL_ROW_23_177
*1671 TAP_TAPCELL_ROW_23_178
*1672 TAP_TAPCELL_ROW_23_179
*1673 TAP_TAPCELL_ROW_24_180
*1674 TAP_TAPCELL_ROW_24_181
*1675 TAP_TAPCELL_ROW_24_182
*1676 TAP_TAPCELL_ROW_24_183
*1677 TAP_TAPCELL_ROW_25_184
*1678 TAP_TAPCELL_ROW_25_185
*1679 TAP_TAPCELL_ROW_25_186
*1680 TAP_TAPCELL_ROW_25_187
*1681 TAP_TAPCELL_ROW_26_188
*1682 TAP_TAPCELL_ROW_26_189
*1683 TAP_TAPCELL_ROW_26_190
*1684 TAP_TAPCELL_ROW_26_191
*1685 TAP_TAPCELL_ROW_27_192
*1686 TAP_TAPCELL_ROW_27_193
*1687 TAP_TAPCELL_ROW_27_194
*1688 TAP_TAPCELL_ROW_27_195
*1689 TAP_TAPCELL_ROW_28_196
*1690 TAP_TAPCELL_ROW_28_197
*1691 TAP_TAPCELL_ROW_28_198
*1692 TAP_TAPCELL_ROW_28_199
*1693 TAP_TAPCELL_ROW_29_200
*1694 TAP_TAPCELL_ROW_29_201
*1695 TAP_TAPCELL_ROW_29_202
*1696 TAP_TAPCELL_ROW_29_203
*1697 TAP_TAPCELL_ROW_2_92
*1698 TAP_TAPCELL_ROW_2_93
*1699 TAP_TAPCELL_ROW_2_94
*1700 TAP_TAPCELL_ROW_2_95
*1701 TAP_TAPCELL_ROW_30_204
*1702 TAP_TAPCELL_ROW_30_205
*1703 TAP_TAPCELL_ROW_30_206
*1704 TAP_TAPCELL_ROW_30_207
*1705 TAP_TAPCELL_ROW_31_208
*1706 TAP_TAPCELL_ROW_31_209
*1707 TAP_TAPCELL_ROW_31_210
*1708 TAP_TAPCELL_ROW_31_211
*1709 TAP_TAPCELL_ROW_32_212
*1710 TAP_TAPCELL_ROW_32_213
*1711 TAP_TAPCELL_ROW_32_214
*1712 TAP_TAPCELL_ROW_32_215
*1713 TAP_TAPCELL_ROW_33_216
*1714 TAP_TAPCELL_ROW_33_217
*1715 TAP_TAPCELL_ROW_33_218
*1716 TAP_TAPCELL_ROW_33_219
*1717 TAP_TAPCELL_ROW_34_220
*1718 TAP_TAPCELL_ROW_34_221
*1719 TAP_TAPCELL_ROW_34_222
*1720 TAP_TAPCELL_ROW_34_223
*1721 TAP_TAPCELL_ROW_35_224
*1722 TAP_TAPCELL_ROW_35_225
*1723 TAP_TAPCELL_ROW_35_226
*1724 TAP_TAPCELL_ROW_35_227
*1725 TAP_TAPCELL_ROW_36_228
*1726 TAP_TAPCELL_ROW_36_229
*1727 TAP_TAPCELL_ROW_36_230
*1728 TAP_TAPCELL_ROW_36_231